out_measurements_multi_error_500/models_topology/case_topology_corrected_385168487444.m
function mpc = case_topology_corrected_385168487444
mpc.version = '2';
mpc.baseMVA = 100;

mpc.bus = [
    1 3 0 0 0 0 1 1.06 0 135 1 2 0 0 0 0 0 0;
    2 2 21.7 12.7 0 0 1 1.045 -3.11887827458 135 1 2 0 0 0 0 0 0;
    3 1 0 0 0 0 1 1.02449675875 -17.0497165614 135 1 2 0 0 0 0 0 0;
    4 2 94.2 19 0 0 1 1.01 -15.7375587175 135 1 2 0 0 0 0 0 0;
    5 1 47.8 -3.9 0 0 1 1.0195324143 -17.8186142738 135 1 2 0 0 0 0 0 0;
    6 1 7.6 1.6 0 0 1 1.02346210522 -16.182270545 135 1 2 0 0 0 0 0 0;
    7 2 11.2 7.5 0 0 1 1.07 -22.0530273411 0.208 1 2 0 0 0 0 0 0;
    8 1 0 0 0 0 1 1.05141079599 -20.9511944636 14 1 2 0 0 0 0 0 0;
    9 2 0 0 0 0 1 1.09 -20.9511944636 12 1 2 0 0 0 0 0 0;
    10 1 29.5 16.6 0 19 1 1.04529327813 -22.5579218834 0.208 1 2 0 0 0 0 0 0;
    11 1 9 5.8 0 0 1 1.04217815665 -22.7523915266 0.208 1 2 0 0 0 0 0 0;
    12 1 3.5 1.8 0 0 1 1.05241747768 -22.5272620492 0.208 1 2 0 0 0 0 0 0;
    13 1 6.1 1.6 0 0 1 1.05437040223 -22.9010322088 0.208 1 2 0 0 0 0 0 0;
    14 1 13.5 5.8 0 0 1 1.04882741966 -22.9571524627 0.208 1 2 0 0 0 0 0 0;
    15 1 14.9 5 0 0 1 1.02873336462 -23.7435758215 0.208 1 2 0 0 0 0 0 0;
];

mpc.gen = [
    1 0 0 0 0 1.06 1 1 1000000000 -1000000000 0 0 0 0 0 0 0 0 0 0 0 0 0 0 0 1;
    2 40 0 1000000000 -1000000000 1.045 nan 1 1000000000 -1000000000 0 0 0 0 0 0 0 0 0 0 0 0 0 0 0 0;
    4 0 0 2000000000 -2000000000 1.01 nan 1 2000000000 -2000000000 0 0 0 0 0 0 0 0 0 0 0 0 0 0 0 0;
    7 0 0 1000000000 -1000000000 1.07 nan 1 1000000000 -1000000000 0 0 0 0 0 0 0 0 0 0 0 0 0 0 0 0;
    9 0 0 1000000000 -1000000000 1.09 nan 1 1000000000 -1000000000 0 0 0 0 0 0 0 0 0 0 0 0 0 0 0 0;
];

mpc.branch = [
    1 2 0.01938 0.05917 0.0528 100 0 0 0 0 1 -360 360 0 0 0 0 0 0 0 0 0;
    1 6 0.05403 0.22304 0.0492 100 0 0 0 0 1 -360 360 0 0 0 0 0 0 0 0 0;
    2 4 0.04699 0.19797 0.0438 100 0 0 0 0 1 -360 360 0 0 0 0 0 0 0 0 0;
    3 5 0.05811 0.17632 0.034 100 0 0 0 0 1 -360 360 0 0 0 0 0 0 0 0 0;
    3 6 0.05695 0.17388 0.0346 100 0 0 0 0 1 -360 360 0 0 0 0 0 0 0 0 0;
    4 5 0.06701 0.17103 0.0128 100 0 0 0 0 1 -360 360 0 0 0 0 0 0 0 0 0;
    5 6 0.01335 0.04211 0 100 0 0 0 0 1 -360 360 0 0 0 0 0 0 0 0 0;
    5 8 0 0.20912 -0 100 0 0 0.978 0 1 -360 360 0 0 0 0 0 0 0 0 0;
    5 10 0 0.55618 -0 100 0 0 0.969 0 1 -360 360 0 0 0 0 0 0 0 0 0;
    6 7 0 0.25202 -0 100 0 0 0.932 0 1 -360 360 0 0 0 0 0 0 0 0 0;
    7 12 0.09498 0.1989 0 100 0 0 0 0 1 -360 360 0 0 0 0 0 0 0 0 0;
    7 13 0.12291 0.25581 0 100 0 0 0 0 1 -360 360 0 0 0 0 0 0 0 0 0;
    7 14 0.06615 0.13027 0 100 0 0 0 0 1 -360 360 0 0 0 0 0 0 0 0 0;
    8 9 0 0.17615 -0 100 0 0 0 0 1 -360 360 0 0 0 0 0 0 0 0 0;
    8 10 0 0.11001 -0 100 0 0 0 0 1 -360 360 0 0 0 0 0 0 0 0 0;
    10 11 0.03181 0.0845 0 100 0 0 0 0 1 -360 360 0 0 0 0 0 0 0 0 0;
    10 15 0.12711 0.27038 0 100 0 0 0 0 1 -360 360 0 0 0 0 0 0 0 0 0;
    11 12 0.08205 0.19207 0 100 0 0 0 0 1 -360 360 0 0 0 0 0 0 0 0 0;
    13 14 0.22092 0.19988 0 100 0 0 0 0 1 -360 360 0 0 0 0 0 0 0 0 0;
    14 15 0.17093 0.34802 0 100 0 0 0 0 1 -360 360 0 0 0 0 0 0 0 0 0;
];
